26
Properties=species:S:1:pos:R:3:tags:I:1 pbc="F F F"
C       22.69117931       8.32750000       3.99999999        2
C       24.02485843       9.09750002       3.99999998        1
C       20.02382107       8.32749996       3.99999999        2
C       18.69014194       9.09749995       3.99999999        1
C       18.69014191      10.63749995       3.99999999        2
C       20.02382104      11.40749996       3.99999998        1
C       21.35750017      10.63749999       3.99999998        2
C       21.35750019       9.09750000       3.99999999        1
C       24.02485841      10.63750003       3.99999998        2
C       22.69117927      11.40750001       3.99999998        1
C       22.69117926      12.94750001       3.99999997        2
C       21.35750011      13.71749999       3.99999997        1
C       20.02382101      12.94749998       3.99999998        2
C       20.02382101      20.66249999       3.99999999        1
C       18.69014189      19.89249997       3.99999998        2
C       22.69117925      20.66250003       3.99999999        1
C       24.02485838      19.89250004       3.99999999        2
C       24.02485840      18.35250004       3.99999999        1
C       22.69117928      17.58250003       3.99999998        2
C       21.35750015      18.35250000       3.99999998        1
C       21.35750013      19.89249999       3.99999999        2
C       18.69014190      18.35249996       3.99999998        1
C       20.02382104      17.58249998       3.99999998        2
C       20.02382106      16.04249998       3.99999997        1
C       21.35750020      15.27250000       3.99999997        2
C       22.69117931      16.04250001       3.99999998        1
